7

Si   -5.84020243e-07 -1.59222266e-11  2.24012891e+00
Si    1.38430477e+00 -9.45843924e-12 -9.83446349e-04
Si   -5.86688524e-07  2.13139876e+00  6.91544157e-01
Si   -5.90556660e-07  1.31722556e+00 -1.81406904e+00
Si   -5.90557360e-07 -1.31722556e+00 -1.81406904e+00
Si   -5.86689640e-07 -2.13139876e+00  6.91544157e-01
Si   -1.38430199e+00 -8.92200295e-12 -9.83443055e-04
